<?xml version="1.0" encoding="UTF-8"?>

<!-- generated on 2024-06-13 19:02:38.032457 by randomTrips.py UNKNOWN
<configuration>
    <net-file value="erlangen.net.xml"/>
    <route-file value="erlangentest.rou.xml"/>
    <end value="600.0"/>
</configuration>
-->

<!-- generated on 2024-06-13 19:02:38 by Eclipse SUMO duarouter Version 1.18.0
<configuration xmlns:xsi="http://www.w3.org/2001/XMLSchema-instance" xsi:noNamespaceSchemaLocation="http://sumo.dlr.de/xsd/duarouterConfiguration.xsd">

    <input>
        <net-file value="erlangen.net.xml"/>
        <route-files value="trips.trips.xml"/>
    </input>

    <output>
        <output-file value="erlangentest.rou.xml"/>
        <alternatives-output value="NUL"/>
    </output>

    <time>
        <begin value="0"/>
        <end value="600.0"/>
    </time>

    <report>
        <no-warnings value="true"/>
        <ignore-errors value="true"/>
        <no-step-log value="true"/>
    </report>

</configuration>
-->

<routes xmlns:xsi="http://www.w3.org/2001/XMLSchema-instance"
        xsi:noNamespaceSchemaLocation="http://sumo.dlr.de/xsd/routes_file.xsd">
    <vehicle id="0" depart="0.00">
        <route edges="31241838#1 -31241838#1 -31241838#0 -31255203#1 -31255203#0 -4006702#0 4319352#1 44069041#0 44069041#1 4400949 31982182#0 4047241 4797872 4797871 -15259223"/>
    </vehicle>
    <vehicle id="1" depart="0.00">
        <route edges="-29900565#2 29900565#2 29900565#3 33174302#0 33174302#1 4686970#0 4686970#1 122161381 30350448 30350449 4400949 31982182#0 4047241 4797872 4797871 4006668 126606716"/>
    </vehicle>
    <vehicle id="2" depart="0.00">
        <route edges="-29900564#1 -8402998#2 -8402998#1 -8402997 32270595 33174302#0 33174302#1 4686970#0 4686970#1 122161381 30350448 8364476 30350450#0 -3998645#2 -3998615#3 3998615#3"/>
    </vehicle>
    <vehicle id="3" depart="0.00">
        <route edges="4047378 4006724#1 4006724#2 -3998612#1 -3998612#0 30357194 25472299 30350448 30350449 25472079 30405352 30350445 -33174302#1 -33174302#0 -32270595 8402997 8402998#1 8402998#2 29900564#1 29900564#2 -29900564#2"/>
    </vehicle>
    <vehicle id="4" depart="0.00">
        <route edges="28613734 28613727#0 28613727#1 -94344940#0 28768072 -28613737 -4006702#0 4319352#1 44069041#0 25472134 30751813 -35842306#1 -35842306#0 35842306#0"/>
    </vehicle>
    <vehicle id="5" depart="0.00">
        <route edges="-35842306#1 35842306#1 4047446#0 4047446#1 25472079 30405352 30350445 -33174302#1 -33174302#0 -32270595 -29900561#1 -29900561#0 -8403001 -4006674#4 23605600#1 23605600#2"/>
    </vehicle>
    <vehicle id="6" depart="0.00">
        <route edges="-23341293 -10425128#0 -4006693#2 -4006693#1 -4006693#0 -31401017#2 -31401017#1 -31401017#0 -29900567 -31401018 -4047532 -32270592#1"/>
    </vehicle>
    <vehicle id="7" depart="0.00">
        <route edges="-4006668 4006668 23339459 30405358#1 85355912 85355911#0 85355911#1 30405356 5931612 30350450#0 30350450#1 30350450#2 4006702#0 31255203#0 -31241851#2 -31241851#1 31241851#1"/>
    </vehicle>
    <vehicle id="8" depart="0.00">
        <route edges="-37591481 37591481 -113939241 113939244#0 113939244#1 113939244#2 -126606716 23339459 30405358#1 85355912 85355911#0 85355911#1 30405356 25472079 30405352 30350445"/>
    </vehicle>
    <vehicle id="9" depart="0.00">
        <route edges="15259223 4006668 23339459 30405358#1 85355912 85355911#0 85355911#1 30405356 25472079 30405352 30350445 -33174302#1 -33174302#0 -32302591#5 -32302591#4 -32302591#3 -32302591#2 -32302591#1 -32302591#0 4006672"/>
    </vehicle>
    <vehicle id="10" depart="0.00">
        <route edges="4006668 23339459 30405358#1 85355912 85355911#0 85355911#1 30405356 5931612 30350450#0 30350450#1 30350450#2 4006702#0 4006702#1 4006702#2 -28269598 28269598"/>
    </vehicle>
    <vehicle id="11" depart="0.00">
        <route edges="-3013106#1 3013106#1 3013106#2 4319352#1 44069041#0 44069041#1 25472079 30405352 30350445 -33174302#1 -33174302#0 -32270595 -29900561#1 -29900561#0 -8403001"/>
    </vehicle>
    <vehicle id="12" depart="0.00">
        <route edges="4006726#1 4006726#2 -3998645#0 -3998612#0 30357194 25472299 30350448 30350449 4047309 30751813 -35842306#1 -35842306#0 -4900741 4900741"/>
    </vehicle>
    <vehicle id="13" depart="0.00">
        <route edges="-29900567 29900567 31401017#0 4006688#0 4006688#1 4006688#2 4006688#3 4006688#4 29900561#0 29900561#1 8402997 -8402998#0 -29900565#2 -29900565#1 -29900565#0"/>
    </vehicle>
    <vehicle id="14" depart="0.00">
        <route edges="4797872 4797871 4006668 23339459 30405358#1 85355912 85355911#0 85355911#1 30405356 25472079 30405352 30350445 -33174302#1 -33174302#0 -29900565#3 -29900565#2 29900565#2"/>
    </vehicle>
    <vehicle id="15" depart="0.00">
        <route edges="4006687 32270595 33174302#0 33174302#1 4686970#0 4686970#1 122161381 30350448 30350449 4047309 30751813 -35842306#1 -35842306#0 35842306#0"/>
    </vehicle>
    <vehicle id="16" depart="0.00">
        <route edges="28613727#1 -94344940#0 28768072 -28613737 -4006702#0 4319352#1 44069041#0 44069041#1 25472079 30405352 30350445 -33174302#1 -33174302#0 -32270595 -29900561#1 -29900561#0 29900564#0 8402998#3"/>
    </vehicle>
    <vehicle id="17" depart="0.00">
        <route edges="-4690348 4900739#2 4900741 35842306#0 35842306#1 4047446#0 4047446#1 25472079 30405352 30350445 -33174302#1 -33174302#0 -32270595 -29900561#1 -29900561#0 29900564#0"/>
    </vehicle>
    <vehicle id="18" depart="0.00">
        <route edges="4006693#0 -23605595 -8403007 -29900564#1 -8402998#2 -8402998#1 -8402997 32270595 33174302#0 33174302#1 4686970#0 4686970#1 122161381 30350448 8364476 30350450#0 30350450#1 30350450#2 4006702#0 31255203#0 31255203#1 31241838#0 31241838#1 -31241816#0 31241816#0"/>
    </vehicle>
    <vehicle id="19" depart="0.00">
        <route edges="4006705#2 -4006705#2 -4006705#1 4006703#1 28269598 -4006702#2 -4006702#1 -4006702#0 -3013106#2 -3013106#1 -3013106#0 3013106#0"/>
    </vehicle>
    <vehicle id="20" depart="0.00">
        <route edges="-94344940#2 -94344940#0 28768072 -28613737 -4006702#0 4319352#1 44069041#0 44069041#1 25472079 30405352 30350445 -33174302#1 -33174302#0 -32302591#5 -32302591#4 -32302591#3 -32302591#2 -32302591#1 -32302591#0"/>
    </vehicle>
    <vehicle id="21" depart="0.00">
        <route edges="-3998612#1 -3998612#0 3998613#0 3998613#1 3998613#2 -31353573#1 4006673 -32302591#4 -32302591#3 -4006684 -4006674#2"/>
    </vehicle>
    <vehicle id="22" depart="0.00">
        <route edges="-29900564#5 -29900564#4 -29900564#3 -29900564#2 -29900564#1 -8402998#2 -8402998#1 -8402997 32270595 33174302#0 33174302#1 4686970#0 4686970#1 122161381 30350448 30350449 4047309 30751813 -35842306#1 -35842306#0"/>
    </vehicle>
    <vehicle id="23" depart="0.00">
        <route edges="4006705#2 -4006705#2 -4006705#1 4006703#1 28269598 -4006702#2 -4006702#1 -4006702#0 -3013106#2 -3013106#1 -3013106#0 -3998612#2 -3998612#1 -3998612#0 3998613#0 -3998613#0"/>
    </vehicle>
    <vehicle id="24" depart="0.00">
        <route edges="31241835#1 31241834#0 31241848 31241851#0 31241851#1 31241851#2 -31255203#0 -4006702#0 -3013106#2 -3013106#1 -3013106#0 -3998612#2 -4006724#2 4872369 -4006725#0"/>
    </vehicle>
    <vehicle id="25" depart="0.00">
        <route edges="4006726#1 4006726#2 -3998645#0 -3998612#0 30357194 25472299 30350448 30350449 25472079 30405352 30350445 -33174302#1 -33174302#0 -29900565#3 -29900565#2 -29900565#1 4006691"/>
    </vehicle>
    <vehicle id="26" depart="0.00">
        <route edges="-4006668 4006668 23339459 30405358#1 85355912 85355911#0 85355911#1 30405356 5931612 30350450#0 -3998645#2 -3998645#1 -3998645#0 3998612#1 -4006724#2 4872369"/>
    </vehicle>
    <vehicle id="27" depart="0.00">
        <route edges="31241851#2 -31255203#0 -4006702#0 4319352#1 44069041#0 44069041#1 4400949 31982182#0 4047241 4797872 4797871 4006668 23339459 30405358#1 85355912 85355911#0 85355911#1 30405356"/>
    </vehicle>
    <vehicle id="28" depart="0.00">
        <route edges="-31401018 31401018 29900567 31401017#0 4006688#0 4006688#1 4006688#2 4006688#3 4006688#4 29900561#0 29900561#1 32270595 33174302#0 33174302#1 4686970#0 4686970#1 122161381 30350448 30350449 4047309 30751813 -35842306#1 -35842306#0 35842306#0"/>
    </vehicle>
    <vehicle id="29" depart="0.00">
        <route edges="-31401017#0 31401017#0 4006688#0 4006688#1 4006688#2 4006688#3 4006688#4 29900561#0 29900561#1 32270595 33174302#0 33174302#1 4686970#0 25472257 -30357194 3998612#0 3998612#1 -4006724#2 -4006724#1 -4047378"/>
    </vehicle>
    <vehicle id="30" depart="0.00">
        <route edges="85355912 85355911#0 85355911#1 30405356 5931612 30350450#0 30350450#1 30350450#2 4006702#0 31255203#0 -31241851#2 -31241851#1 -31241851#0 31241851#0"/>
    </vehicle>
    <vehicle id="31" depart="0.00">
        <route edges="29900564#2 -29900564#2 -29900564#1 -8402998#2 -8402998#1 -8402997 32270595 33174302#0 33174302#1 4686970#0 4686970#1 122161381 30350448 8364476 30350450#0 30350450#1 30350450#2 4006702#0 4006702#1 4006702#2 -28269598 -4006703#1 4006705#1 4006705#2 31720632#0 31720633"/>
    </vehicle>
    <vehicle id="32" depart="0.00">
        <route edges="4006694 4006693#4 4006690 29900565#0 29900565#1 29900565#2 29900565#3 33174302#0 33174302#1 4686970#0 4686970#1 122161381 30350448 8364476 30350450#0 -3998645#2 3998645#2"/>
    </vehicle>
    <vehicle id="33" depart="0.00">
        <route edges="-3998612#1 3998612#1 3998612#2 3013106#0 3013106#1 3013106#2 4006702#0 4006702#1 4900043 4900041#1 4900041#2 -23350930"/>
    </vehicle>
    <vehicle id="34" depart="0.00">
        <route edges="-4006693#0 -31401017#2 -31401017#1 4006688#0 4006688#1 4006688#2 4006688#3 4006688#4 29900561#0 29900561#1 32270595 33174302#0 33174302#1 4686970#0 4686970#1 122161381 30350448 8364476 30350450#0 30350450#1 -3998643#2 -3998643#1"/>
    </vehicle>
    <vehicle id="35" depart="0.00">
        <route edges="-33174302#0 33174302#0 33174302#1 4686970#0 4686970#1 122161381 30350448 30350449 4047309 30751813 -35842306#1 -35842306#0 -4900741 -4900739#2 -4900739#1 4900739#1"/>
    </vehicle>
    <vehicle id="36" depart="0.00">
        <route edges="4006726#0 4006726#1 4006726#2 -3998645#0 -3998612#0 30357194 25472299 30350448 30350449 25472079 30405352 30350445 -33174302#1 -33174302#0 -32270595 -29900561#1 -29900561#0 -4006688#4 -4006688#3 -4006688#2"/>
    </vehicle>
    <vehicle id="37" depart="0.00">
        <route edges="31241853#2 31241851#2 -31255203#0 -4006702#0 -3013106#2 -3013106#1 -3013106#0 -3998612#2 -4006724#2 4872369 -4872369"/>
    </vehicle>
    <vehicle id="38" depart="0.00">
        <route edges="4006687 32270595 33174302#0 33174302#1 4686970#0 4686970#1 122161381 30350448 8364476 30350450#0 30350450#1 30350450#2 4006702#0 4006702#1 4006702#2 -28269598 -4006703#1 4006705#1 4006705#2 31720632#0 -31720632#0"/>
    </vehicle>
    <vehicle id="39" depart="0.00">
        <route edges="-10712013 4006688#3 4006688#4 29900561#0 29900561#1 32270595 33174302#0 33174302#1 4686970#0 4686970#1 122161381 30350448 30350449 4047309 30751813 -35842306#1 -35842306#0 -4900741 -4900739#2 4690348"/>
    </vehicle>
    <vehicle id="40" depart="0.00">
        <route edges="29900564#4 -29900564#4 -29900564#3 -29900564#2 -29900564#1 -8402998#2 -8402998#1 -8402997 32270595 33174302#0 33174302#1 4686970#0 4686970#1 122161381 30350448 8364476 30350450#0 -3998645#2 -3998615#3"/>
    </vehicle>
    <vehicle id="41" depart="0.00">
        <route edges="31401017#2 -31401017#2 -31401017#1 4006688#0 4006688#1 4006688#2 4006688#3 4006688#4 29900561#0 29900561#1 32270595 33174302#0 33174302#1 4686970#0 4686970#1 122161381 30350448 8364476 30350450#0 30350450#1 30350450#2 4006702#0 28613737 94344941 94344940#0 -28613727#1 28613727#1"/>
    </vehicle>
    <vehicle id="42" depart="0.00">
        <route edges="29900564#0 -29900564#0 -4006688#4 -4006688#3 -4006688#2 -4006688#1 -4006688#0 -31401017#0 -29900567 -23605600#2"/>
    </vehicle>
    <vehicle id="43" depart="0.00">
        <route edges="33174302#1 -33174302#1 -33174302#0 -32270595 -29900561#1 -29900561#0 -4006688#4 -4006688#3 -4006688#2 -4006688#1 -4006688#0 31401017#1"/>
    </vehicle>
    <vehicle id="44" depart="0.00">
        <route edges="-31241816#1 -31241838#1 -31241838#0 -31255203#1 -31255203#0 -4006702#0 4319352#1 44069041#0 44069041#1 25472079 30405352 30350445 -33174302#1 -33174302#0 -32270595 8402997 8402998#1 8402998#2 29900564#1 8403007 -8403007"/>
    </vehicle>
    <vehicle id="45" depart="0.00">
        <route edges="-4006688#3 4006688#3 4006688#4 29900561#0 29900561#1 32270595 33174302#0 33174302#1 4686970#0 4686970#1 122161381 30350448 8364476 30350450#0 30350450#1 30350450#2 4006702#0 4006702#1 4006702#2 -28269598 -4006703#1 4006705#1 -25210699"/>
    </vehicle>
    <vehicle id="46" depart="0.00">
        <route edges="85355911#0 85355911#1 30405356 25472079 30405352 30350445 -33174302#1 -33174302#0 -29900565#3 -29900565#2 -29900565#1"/>
    </vehicle>
    <vehicle id="47" depart="0.00">
        <route edges="-29900561#0 -4006688#4 -4006688#3 -4006688#2 -4006688#1 -4006688#0 -31401017#0 -29900567 -31401018 -4047532"/>
    </vehicle>
    <vehicle id="48" depart="0.00">
        <route edges="-33174302#1 33174302#1 4686970#0 4686970#1 122161381 30350448 8364476 30350450#0 30350450#1 30350450#2 4006702#0 31255203#0 31255203#1 31241838#0 -31241853#1 -31241855#1 -31241855#0 -31241834#1"/>
    </vehicle>
    <vehicle id="49" depart="0.00">
        <route edges="8402998#1 -8402998#1 -8402997 32270595 33174302#0 33174302#1 4686970#0 4686970#1 122161381 30350448 8364476 30350450#0 30350450#1 30350450#2 4006702#0 4006702#1 4006702#2 -28269598 -4006703#1 4006705#1"/>
    </vehicle>


<!--    <vehicle id="81" depart="81.00">-->
<!--        <route edges="-3998612#1 -3998612#0 3998613#0 3998613#1 3998613#2 -41973977 41973977"/>-->
<!--    </vehicle>-->
<!--    <vehicle id="82" depart="82.00">-->
<!--        <route edges="4006705#1 -4006705#1 4006703#1 28269598 -4006702#2 -4006702#1 28613737 94344941 94344940#0 -28613727#1"/>-->
<!--    </vehicle>-->
<!--    <vehicle id="83" depart="83.00">-->
<!--        <route edges="-3998613#2 3998613#2 -31353573#1 31353573#1"/>-->
<!--    </vehicle>-->
<!--    -->
<!--    <vehicle id="92" depart="92.00">-->
<!--        <route edges="-67076129 -94344940#0 28768072 -28613737 -4006702#0"/>-->
<!--    </vehicle>-->

<!--    <vehicle id="94" depart="94.00">-->
<!--        <route edges="-32270593 4006674#0 4006674#1 4006674#2 4006674#3 4006674#4 8403001 29900564#0 29900564#1 8403007 -23341293 10425128#1"/>-->
<!--    </vehicle>-->
<!--    <vehicle id="95" depart="95.00">-->
<!--        <route edges="-94344940#0 28768072 -28613737 -4006702#0 4319352#1 44069041#0 44069041#1 5931612 30350450#0 -3998645#2"/>-->
<!--    </vehicle>-->
<!--    <vehicle id="96" depart="96.00">-->
<!--        <route edges="-3998643#0 3998612#2 3013106#0 3013106#1 3013106#2 4319352#1 44069041#0 44069041#1"/>-->
<!--    </vehicle>-->
<!--    <vehicle id="97" depart="97.00">-->
<!--        <route edges="10573414#1 3013106#0 3013106#1 3013106#2 4006702#0 4006702#1 4006702#2 -28269598 -4006703#1 4006705#1"/>-->
<!--    </vehicle>-->

<!--    <vehicle id="99" depart="99.00">-->
<!--        <route edges="9643180 8402998#2 29900564#1 8403007 23605595 -4006693#0 4006693#0"/>-->
<!--    </vehicle>-->
<!--    <vehicle id="100" depart="100.00">-->
<!--        <route edges="8402998#0 -8402997 32270595 33174302#0 33174302#1 4686970#0"/>-->
<!--    </vehicle>-->
</routes>
