<?xml version="1.0" encoding="UTF-8"?>

<!-- generated on 2024-05-20 16:28:56 by Eclipse SUMO netedit Version 1.18.0
-->

<routes xmlns:xsi="http://www.w3.org/2001/XMLSchema-instance" xsi:noNamespaceSchemaLocation="http://sumo.dlr.de/xsd/routes_file.xsd">
   <!-- VTypes -->
   <vType id="vtype0" length="2.50" minGap="2.50" maxSpeed="14.00" color="yellow" accel="2.6" decel="4.5" sigma="0.5"/>

   <!-- Routes -->
   <route id="r_0" edges="-39539626 -5445204#2 -5445204#1 113939244#2 -126606716 23339459 30405358#1 85355912 85355911#0 85355911#1 30405356 5931612 30350450#0 30350450#1 30350450#2 4006702#0 4006702#1 4900043 4900041#1"/>
   <route id="r_1" edges="23605600#0 -23605600#0 -32302591#4 32302591#4 -32302591#4 -32302591#3 -32302591#2"/>
   <route id="r_2" edges="4006689 -29900565#1 -29900565#0"/>
   <route id="r_3" edges="31353573#1 -31353573#1 -31353573#0 -33174302#1 33174302#1 -33174302#1 -33174302#0 33174302#0"/>
   <route id="r_4" edges="-35842306#1 35842306#1 4047446#0 25472129 31982182#0 4047241 4797872 4797871 4006668 126606716 113939242#0 5445204#1 5445204#2 5445204#3 23570844#2 10419402 -10419402 10419402 -4006693#1 4006693#1"/>
   <route id="r_5" edges="4006702#2 4006701 -4006701"/>
   <route id="r_6" edges="3013106#0 -3013107 -3013109"/>
   <route id="r_7" edges="3998612#2 -10573414#1 4047378 4006724#1 4006724#2 -4006724#2 -4006724#1 -4047378 4047378"/>
   <route id="r_8" edges="-4006688#0 4006688#0 4006688#1 4006688#2 4006688#3 -4006688#3 4006688#3 4006688#4 -4006688#4 4006688#4 29900564#0 -8402998#2"/>
   <!-- Vehicles, persons and containers (sorted by depart) -->
   <flow id="flow0" type="vtype0" begin="0.00" route="r_0" number="5" period="6.00"/>
   <flow id="flow1" type="vtype0" begin="0.00" route="r_1" number="5" period="7.00"/>
   <flow id="flow2" type="vtype0" begin="0.00" route="r_2" number="4" period="6.00"/>
   <flow id="flow3" type="vtype0" begin="0.00" route="r_3" number="6" period="8.00"/>
   <flow id="flow4" type="vtype0" begin="0.00" route="r_4" number="8" period="4.00"/>
   <flow id="flow5" type="vtype0" begin="0.00" route="r_5" number="5" period="10.00"/>
   <flow id="flow6" type="vtype0" begin="0.00" route="r_6" number="6" period="5.00"/>
   <flow id="flow7" type="vtype0" begin="0.00" route="r_7" number="5" period="10.00"/>
   <flow id="flow8" type="vtype0" begin="0.00" route="r_8" number="6" period="8.00"/>
</routes>
