<?xml version="1.0" encoding="UTF-8"?>

<!-- generated on 2024-05-20 16:37:02 by Eclipse SUMO netedit Version 1.18.0
-->

<additional xmlns:xsi="http://www.w3.org/2001/XMLSchema-instance" xsi:noNamespaceSchemaLocation="http://sumo.dlr.de/xsd/additional_file.xsd">
    <!-- Shapes -->
    <poly id="112552150" type="building" color="red" fill="1" layer="4.00" shape="646449.740000,5493167.410000 646463.560000,5493152.970000 646486.150000,5493174.480000 646472.330000,5493188.910000 646449.740000,5493167.410000"/>
    <poly id="116904831" type="building" color="red" fill="1" layer="4.00" shape="646777.330000,5493200.070000 646749.030000,5493228.320000 646745.370000,5493231.910000 646720.440000,5493206.530000 646755.790000,5493172.000000 646780.410000,5493197.080000 646777.330000,5493200.070000"/>
    <poly id="133641469" type="building" color="red" fill="1" layer="4.00" shape="646791.750000,5493244.670000 646789.960000,5493241.400000 646787.080000,5493239.090000 646782.480000,5493238.060000 646779.090000,5493238.790000 646776.040000,5493240.890000 646773.940000,5493244.210000 646773.380000,5493247.770000 646773.960000,5493250.670000 646776.290000,5493254.190000 646779.640000,5493256.240000 646783.010000,5493256.770000 646786.970000,5493255.790000 646790.260000,5493253.060000 646792.040000,5493248.850000 646791.750000,5493244.670000"/>
    <poly id="133641470" type="building" color="red" fill="1" layer="4.00" shape="646811.660000,5493235.040000 646814.670000,5493232.100000 646843.560000,5493261.520000 646807.610000,5493296.610000 646779.020000,5493267.490000 646783.340000,5493263.270000 646811.660000,5493235.040000"/>
    <poly id="133641471" type="building" color="red" fill="1" layer="4.00" shape="646777.330000,5493200.070000 646796.660000,5493219.760000 646811.660000,5493235.040000 646783.340000,5493263.270000 646767.260000,5493246.890000 646762.930000,5493251.110000 646751.490000,5493239.460000 646755.820000,5493235.240000 646749.030000,5493228.320000 646777.330000,5493200.070000"/>
    <poly id="136977170" type="building" color="red" fill="1" layer="4.00" shape="646757.990000,5493916.560000 646757.610000,5493908.020000 646738.310000,5493908.810000 646738.720000,5493917.330000 646757.990000,5493916.560000"/>
    <poly id="136977173" type="building" color="red" fill="1" layer="4.00" shape="646812.590000,5493813.740000 646802.540000,5493811.920000 646786.410000,5493806.070000 646755.860000,5493837.830000 646755.470000,5493858.680000 646755.780000,5493866.610000 646757.610000,5493908.020000 646757.990000,5493916.560000 646769.340000,5493920.910000 646772.690000,5493911.710000 646787.420000,5493912.110000 646788.340000,5493849.460000 646801.120000,5493835.870000 646808.060000,5493837.610000 646812.590000,5493813.740000"/>
    <poly id="136977175" type="building" color="red" fill="1" layer="4.00" shape="646755.470000,5493858.680000 646735.930000,5493859.670000 646736.300000,5493867.360000 646755.780000,5493866.610000 646755.470000,5493858.680000"/>
    <poly id="138227075" type="building" color="red" fill="1" layer="4.00" shape="646412.480000,5492995.580000 646410.300000,5492996.750000 646408.650000,5492998.580000 646407.730000,5493000.870000 646407.650000,5493003.340000 646408.930000,5493006.490000 646410.700000,5493008.220000 646412.960000,5493009.220000 646415.430000,5493009.400000 646416.660000,5493009.170000 646418.880000,5493008.090000 646420.600000,5493006.310000 646421.620000,5493004.060000 646421.820000,5493002.680000 646421.510000,5493000.230000 646420.380000,5492998.030000 646418.560000,5492996.360000 646416.280000,5492995.400000 646413.810000,5492995.280000 646412.480000,5492995.580000"/>
    <poly id="138701361" type="building" color="red" fill="1" layer="4.00" shape="646748.260000,5492943.630000 646738.960000,5492955.350000 646744.870000,5492961.040000 646754.740000,5492949.590000 646748.260000,5492943.630000"/>
    <poly id="138701362" type="building" color="red" fill="1" layer="4.00" shape="646718.010000,5492977.050000 646710.500000,5492984.520000 646715.920000,5492990.220000 646723.360000,5492982.190000 646718.010000,5492977.050000"/>
    <poly id="23347603" type="building" color="red" fill="1" layer="4.00" shape="646654.800000,5493283.500000 646629.180000,5493258.920000 646617.140000,5493271.400000 646606.020000,5493282.890000 646631.600000,5493307.520000 646641.620000,5493297.180000 646654.800000,5493283.500000"/>
    <poly id="23347604" type="building" color="red" fill="1" layer="4.00" shape="646581.870000,5493369.990000 646589.440000,5493377.180000 646650.090000,5493434.470000 646656.850000,5493440.820000 646699.550000,5493395.630000 646693.230000,5493390.240000 646678.450000,5493375.470000 646642.260000,5493340.060000 646628.370000,5493326.410000 646625.880000,5493323.860000 646581.870000,5493369.990000"/>
    <poly id="23347605" type="building" color="red" fill="1" layer="4.00" shape="646637.910000,5493138.530000 646647.650000,5493147.550000 646652.650000,5493152.260000 646690.250000,5493187.900000 646692.060000,5493189.610000 646698.290000,5493195.370000 646733.340000,5493157.740000 646716.170000,5493141.840000 646706.920000,5493151.770000 646680.630000,5493127.420000 646690.780000,5493116.530000 646673.410000,5493100.440000 646637.910000,5493138.530000"/>
    <poly id="23347607" type="building" color="red" fill="1" layer="4.00" shape="646560.180000,5493067.410000 646586.100000,5493040.640000 646615.640000,5493069.070000 646621.980000,5493075.180000 646596.060000,5493101.950000 646560.180000,5493067.410000"/>
    <poly id="24668356" type="building" color="red" fill="1" layer="4.00" shape="646601.900000,5493920.750000 646605.000000,5493920.830000 646608.710000,5493921.550000 646611.780000,5493922.870000 646614.820000,5493925.430000 646617.210000,5493928.590000 646618.960000,5493932.960000 646619.380000,5493940.410000 646618.010000,5493945.320000 646615.390000,5493950.210000 646611.560000,5493953.820000 646606.550000,5493955.550000 646603.440000,5493956.070000 646599.710000,5493955.970000 646596.630000,5493955.280000 646593.560000,5493953.950000 646591.130000,5493952.030000 646589.270000,5493948.120000 646586.780000,5493943.800000 646582.600000,5493943.910000 646582.200000,5493955.820000 646575.840000,5493955.560000 646575.340000,5493973.230000 646583.610000,5493973.390000 646586.540000,5494034.990000 646566.610000,5494037.550000 646563.640000,5493972.860000 646570.760000,5493973.010000 646571.190000,5493955.050000 646557.510000,5493954.580000 646558.270000,5493920.360000 646583.430000,5493921.070000 646583.100000,5493933.120000 646586.680000,5493933.120000 646588.040000,5493928.430000 646591.860000,5493924.810000 646595.010000,5493923.040000 646598.160000,5493921.270000 646601.900000,5493920.750000"/>
    <poly id="24669114" type="building" color="red" fill="1" layer="4.00" shape="646634.720000,5494069.440000 646634.420000,5494034.760000 646671.680000,5494033.910000 646671.370000,5494068.570000 646634.720000,5494069.440000"/>
    <poly id="24669678" type="building" color="red" fill="1" layer="4.00" shape="646798.470000,5494060.660000 646797.810000,5494038.970000 646805.260000,5494039.170000 646805.910000,5494060.860000 646798.470000,5494060.660000"/>
    <poly id="24669681" type="building" color="red" fill="1" layer="4.00" shape="646562.150000,5493886.970000 646563.070000,5493848.900000 646604.610000,5493849.770000 646603.680000,5493887.840000 646562.150000,5493886.970000"/>
    <poly id="24750082" type="building" color="red" fill="1" layer="4.00" shape="646660.570000,5494025.290000 646660.750000,5494027.750000 646675.050000,5494026.890000 646675.070000,5494024.900000 646680.700000,5494024.570000 646680.480000,5494009.700000 646674.570000,5494009.610000 646673.430000,5493971.760000 646659.130000,5493972.610000 646660.260000,5494010.780000 646628.300000,5494010.780000 646628.500000,5494026.260000 646660.570000,5494025.290000"/>
    <poly id="25319149" type="building" color="red" fill="1" layer="4.00" shape="646489.850000,5493289.390000 646513.000000,5493264.850000 646537.000000,5493287.350000 646525.610000,5493299.290000 646513.860000,5493311.890000 646489.850000,5493289.390000"/>
    <poly id="25326619" type="building" color="red" fill="1" layer="4.00" shape="646380.540000,5493189.410000 646390.840000,5493199.370000 646424.740000,5493164.520000 646419.820000,5493159.710000 646414.440000,5493154.550000 646380.540000,5493189.410000"/>
    <poly id="25326621" type="building" color="red" fill="1" layer="4.00" shape="646409.150000,5493219.100000 646425.600000,5493234.150000 646470.610000,5493275.330000 646503.140000,5493239.970000 646498.800000,5493235.970000 646493.680000,5493231.320000 646473.560000,5493253.190000 646457.430000,5493238.430000 646477.650000,5493216.450000 646472.440000,5493211.910000 646467.610000,5493207.250000 646446.860000,5493229.810000 646439.060000,5493222.670000 646431.080000,5493215.370000 646451.940000,5493192.700000 646446.740000,5493187.970000 646441.890000,5493183.510000 646409.150000,5493219.100000"/>
    <poly id="25358913" type="building" color="red" fill="1" layer="4.00" shape="646525.050000,5493217.300000 646537.550000,5493204.170000 646551.330000,5493189.670000 646564.890000,5493202.500000 646573.310000,5493210.600000 646568.780000,5493215.340000 646573.840000,5493220.130000 646567.010000,5493227.020000 646552.160000,5493242.930000 646525.050000,5493217.300000"/>
    <poly id="25358914" type="building" color="red" fill="1" layer="4.00" shape="646564.890000,5493202.500000 646587.880000,5493178.850000 646607.120000,5493197.430000 646624.220000,5493213.980000 646601.290000,5493237.540000 646585.810000,5493222.620000 646584.260000,5493221.140000 646573.310000,5493210.600000 646564.890000,5493202.500000"/>
    <poly id="25359010" type="building" color="red" fill="1" layer="4.00" shape="646719.310000,5493264.570000 646705.920000,5493278.570000 646710.570000,5493283.160000 646714.140000,5493286.720000 646708.840000,5493292.010000 646741.360000,5493324.440000 646761.520000,5493303.840000 646771.340000,5493293.980000 646773.260000,5493261.750000 646762.930000,5493251.110000 646751.490000,5493239.460000 646722.710000,5493267.640000 646721.330000,5493266.230000 646719.310000,5493264.570000"/>
    <poly id="25359011" type="building" color="red" fill="1" layer="4.00" shape="646719.540000,5493346.750000 646756.190000,5493382.400000 646781.550000,5493356.490000 646770.540000,5493345.770000 646787.160000,5493328.780000 646761.520000,5493303.840000 646741.360000,5493324.440000 646737.380000,5493328.510000 646719.540000,5493346.750000"/>
    <poly id="25359012" type="building" color="red" fill="1" layer="4.00" shape="646719.310000,5493264.570000 646705.920000,5493278.570000 646693.870000,5493291.050000 646690.950000,5493288.230000 646666.660000,5493265.040000 646684.230000,5493246.740000 646692.000000,5493238.610000 646719.310000,5493264.570000"/>
    <poly id="25843734" type="building" color="red" fill="1" layer="4.00" shape="646345.900000,5493140.160000 646333.270000,5493127.070000 646337.960000,5493122.570000 646341.740000,5493126.480000 646345.440000,5493122.920000 646347.340000,5493124.890000 646354.980000,5493117.570000 646361.930000,5493124.780000 646353.730000,5493132.590000 646345.900000,5493140.160000"/>
    <poly id="26719084" type="building" color="red" fill="1" layer="4.00" shape="646449.730000,5493096.570000 646469.100000,5493115.540000 646501.600000,5493082.530000 646506.070000,5493086.900000 646511.320000,5493092.050000 646492.660000,5493110.990000 646529.340000,5493146.900000 646548.340000,5493127.600000 646551.290000,5493130.490000 646554.490000,5493133.620000 646523.020000,5493165.590000 646541.340000,5493183.530000 646589.320000,5493134.810000 646569.860000,5493115.750000 646559.140000,5493126.630000 646556.400000,5493124.020000 646553.520000,5493121.130000 646559.230000,5493115.330000 646522.490000,5493079.360000 646516.540000,5493085.410000 646512.270000,5493081.180000 646507.920000,5493076.970000 646516.810000,5493067.940000 646497.010000,5493048.550000 646449.730000,5493096.570000"/>
    <poly id="27930333" type="building" color="red" fill="1" layer="4.00" shape="645677.390000,5493503.790000 645674.630000,5493536.730000 645665.830000,5493536.000000 645659.300000,5493535.460000 645662.070000,5493502.250000 645667.180000,5493502.670000 645667.290000,5493501.300000 645670.450000,5493501.560000 645673.550000,5493501.820000 645677.390000,5493503.790000"/>
    <poly id="30372668" type="building" color="red" fill="1" layer="4.00" shape="646668.090000,5493043.380000 646661.090000,5493036.650000 646668.260000,5493029.250000 646669.090000,5493030.060000 646674.330000,5493024.650000 646657.930000,5493008.940000 646648.760000,5493000.080000 646641.580000,5492993.130000 646675.170000,5492958.430000 646678.890000,5492954.580000 646710.500000,5492984.520000 646711.840000,5492986.290000 646715.920000,5492990.220000 646678.660000,5493028.710000 646677.380000,5493027.480000 646672.120000,5493032.910000 646675.280000,5493035.960000 646668.090000,5493043.380000"/>
    <poly id="30372669" type="building" color="red" fill="1" layer="4.00" shape="646718.010000,5492977.050000 646723.360000,5492982.190000 646773.680000,5493030.500000 646794.620000,5493008.810000 646744.870000,5492961.040000 646738.960000,5492955.350000 646718.010000,5492977.050000"/>
    <poly id="30372670" type="building" color="red" fill="1" layer="4.00" shape="646709.520000,5492908.000000 646748.260000,5492943.630000 646754.740000,5492949.590000 646782.160000,5492919.950000 646802.500000,5492938.670000 646820.280000,5492919.460000 646800.040000,5492900.840000 646793.980000,5492907.400000 646760.320000,5492876.440000 646765.610000,5492870.720000 646753.940000,5492859.990000 646709.520000,5492908.000000"/>
    <poly id="30372671" type="building" color="red" fill="1" layer="4.00" shape="646550.800000,5492911.850000 646621.460000,5492975.770000 646683.210000,5492907.890000 646705.720000,5492883.160000 646710.370000,5492878.060000 646664.040000,5492836.150000 646653.020000,5492848.250000 646689.660000,5492881.390000 646679.320000,5492892.760000 646652.150000,5492868.180000 646639.040000,5492882.590000 646665.670000,5492906.690000 646656.960000,5492916.250000 646633.780000,5492895.280000 646621.750000,5492908.510000 646643.690000,5492928.350000 646627.260000,5492946.410000 646620.370000,5492946.170000 646613.110000,5492945.910000 646597.110000,5492931.450000 646616.620000,5492909.990000 646604.990000,5492899.470000 646584.780000,5492921.680000 646572.550000,5492910.620000 646594.540000,5492886.450000 646583.220000,5492876.210000 646550.800000,5492911.850000"/>
    <poly id="30372672" type="building" color="red" fill="1" layer="4.00" shape="646615.150000,5492859.180000 646658.200000,5492812.840000 646637.170000,5492793.400000 646594.110000,5492839.750000 646615.150000,5492859.180000"/>
    <poly id="30372844" type="building" color="red" fill="1" layer="4.00" shape="646798.110000,5493055.450000 646819.400000,5493032.980000 646805.290000,5493019.690000 646784.000000,5493042.140000 646798.110000,5493055.450000"/>
    <poly id="30372845" type="building" color="red" fill="1" layer="4.00" shape="646820.470000,5493078.900000 646843.220000,5493055.650000 646823.010000,5493036.010000 646800.270000,5493059.250000 646820.470000,5493078.900000"/>
    <poly id="30835051" type="building" color="red" fill="1" layer="4.00" shape="644894.280000,5493255.670000 644910.590000,5493249.290000 644872.180000,5493158.370000 644865.620000,5493142.840000 644849.300000,5493149.210000 644894.280000,5493255.670000"/>
    <poly id="30835061" type="building" color="red" fill="1" layer="4.00" shape="644994.780000,5493351.840000 644999.900000,5493349.500000 645006.470000,5493346.520000 645084.670000,5493310.890000 645077.600000,5493296.460000 644987.130000,5493336.160000 644994.780000,5493351.840000"/>
    <poly id="31026112" type="building" color="red" fill="1" layer="4.00" shape="646351.410000,5494132.250000 646353.640000,5494168.730000 646451.300000,5494162.390000 646450.390000,5494126.150000 646397.500000,5494129.410000 646351.410000,5494132.250000"/>
    <poly id="31173258" type="building" color="red" fill="1" layer="4.00" shape="644885.210000,5494113.760000 644909.530000,5494114.160000 644909.600000,5494110.250000 644910.290000,5494067.400000 644885.970000,5494067.010000 644885.210000,5494113.760000"/>
    <poly id="31241860" type="building" color="red" fill="1" layer="4.00" shape="644754.570000,5493405.220000 644768.570000,5493439.020000 644809.410000,5493420.920000 644794.080000,5493385.710000 644754.570000,5493405.220000"/>
    <poly id="31241866" type="building" color="red" fill="1" layer="4.00" shape="644678.350000,5493441.460000 644567.080000,5493492.980000 644582.790000,5493532.410000 644697.140000,5493482.200000 644678.350000,5493441.460000"/>
    <poly id="31241869" type="building" color="red" fill="1" layer="4.00" shape="644659.140000,5493510.290000 644698.480000,5493594.910000 644750.600000,5493572.780000 644708.790000,5493487.470000 644659.140000,5493510.290000"/>
    <poly id="31241873" type="building" color="red" fill="1" layer="4.00" shape="644841.840000,5493504.000000 644847.700000,5493517.160000 644860.260000,5493511.930000 644854.150000,5493498.570000 644841.840000,5493504.000000"/>
    <poly id="31241880" type="building" color="red" fill="1" layer="4.00" shape="644696.190000,5493610.950000 644586.230000,5493660.030000 644570.350000,5493626.800000 644555.900000,5493633.230000 644579.860000,5493689.590000 644604.970000,5493679.110000 644613.790000,5493697.920000 644716.220000,5493651.730000 644696.190000,5493610.950000"/>
    <poly id="31241903" type="building" color="red" fill="1" layer="4.00" shape="644652.260000,5493511.960000 644682.550000,5493577.590000 644663.070000,5493586.350000 644633.400000,5493520.750000 644652.260000,5493511.960000"/>
    <poly id="31241926" type="building" color="red" fill="1" layer="4.00" shape="644767.550000,5493439.930000 644705.580000,5493468.180000 644690.320000,5493434.960000 644753.190000,5493405.680000 644767.550000,5493439.930000"/>
    <poly id="31241933" type="building" color="red" fill="1" layer="4.00" shape="644794.040000,5493596.840000 644801.080000,5493612.510000 644873.940000,5493581.020000 644866.320000,5493564.090000 644794.040000,5493596.840000"/>
    <poly id="31241937" type="building" color="red" fill="1" layer="4.00" shape="644725.550000,5493627.830000 644733.780000,5493644.770000 644771.500000,5493627.190000 644763.270000,5493610.260000 644725.550000,5493627.830000"/>
    <poly id="31241939" type="building" color="red" fill="1" layer="4.00" shape="644781.470000,5493602.700000 644785.310000,5493612.520000 644771.730000,5493618.530000 644767.640000,5493609.150000 644781.470000,5493602.700000"/>
    <poly id="31241962" type="building" color="red" fill="1" layer="4.00" shape="644724.970000,5493486.040000 644745.530000,5493529.920000 644831.000000,5493491.330000 644811.050000,5493448.090000 644724.970000,5493486.040000"/>
    <poly id="31241968" type="building" color="red" fill="1" layer="4.00" shape="645051.740000,5493409.300000 645078.250000,5493471.270000 645080.160000,5493476.530000 645083.890000,5493484.460000 645101.470000,5493476.870000 645068.740000,5493400.460000 645051.740000,5493409.300000"/>
    <poly id="31241976" type="building" color="red" fill="1" layer="4.00" shape="644986.930000,5493441.620000 645012.550000,5493497.910000 645015.420000,5493504.200000 645018.600000,5493511.200000 645003.530000,5493517.600000 644972.460000,5493448.670000 644986.930000,5493441.620000"/>
    <poly id="31241984" type="building" color="red" fill="1" layer="4.00" shape="645018.710000,5493483.950000 645022.860000,5493493.100000 645025.960000,5493499.910000 645028.680000,5493505.890000 645073.930000,5493485.430000 645071.670000,5493480.460000 645069.150000,5493474.910000 645063.960000,5493463.490000 645018.710000,5493483.950000"/>
    <poly id="31242081" type="building" color="red" fill="1" layer="4.00" shape="645442.920000,5493112.290000 645374.950000,5493143.150000 645406.030000,5493211.180000 645473.990000,5493180.300000 645442.920000,5493112.290000"/>
    <poly id="31243595" type="building" color="red" fill="1" layer="4.00" shape="645025.860000,5493367.330000 645016.540000,5493370.060000 645009.570000,5493372.100000 645004.590000,5493373.570000 644976.220000,5493389.530000 644987.430000,5493411.500000 645019.460000,5493398.120000 645035.900000,5493386.780000 645025.860000,5493367.330000"/>
    <poly id="31253072" type="building" color="red" fill="1" layer="4.00" shape="644847.440000,5493517.590000 644865.050000,5493555.830000 644871.960000,5493552.910000 644854.350000,5493514.670000 644847.440000,5493517.590000"/>
    <poly id="31253100" type="building" color="red" fill="1" layer="4.00" shape="644749.920000,5493542.230000 644758.670000,5493563.520000 644771.860000,5493557.670000 644763.100000,5493537.020000 644749.920000,5493542.230000"/>
    <poly id="31261361" type="building" color="red" fill="1" layer="4.00" shape="644682.550000,5493577.590000 644692.800000,5493598.480000 644626.210000,5493627.670000 644616.930000,5493607.730000 644631.880000,5493601.200000 644663.070000,5493586.350000 644682.550000,5493577.590000"/>
    <poly id="31261368" type="building" color="red" fill="1" layer="4.00" shape="644616.930000,5493607.730000 644591.660000,5493549.350000 644606.090000,5493543.550000 644631.880000,5493601.200000 644616.930000,5493607.730000"/>
    <poly id="31270329" type="building" color="red" fill="1" layer="4.00" shape="644866.930000,5493044.520000 644874.400000,5493060.770000 644899.740000,5493049.210000 644909.280000,5493069.990000 644933.280000,5493059.260000 644924.190000,5493039.390000 644957.170000,5493024.340000 644949.190000,5493006.960000 644866.930000,5493044.520000"/>
    <poly id="31270442" type="building" color="red" fill="1" layer="4.00" shape="645461.430000,5493092.270000 645481.660000,5493135.820000 645524.770000,5493115.910000 645504.540000,5493072.360000 645461.430000,5493092.270000"/>
    <poly id="31270443" type="building" color="red" fill="1" layer="4.00" shape="645499.920000,5493026.040000 645483.150000,5492988.220000 645393.730000,5493028.130000 645410.510000,5493065.470000 645499.920000,5493026.040000"/>
    <poly id="31270444" type="building" color="red" fill="1" layer="4.00" shape="645410.510000,5493065.470000 645417.040000,5493079.990000 645506.450000,5493039.960000 645499.920000,5493026.040000 645410.510000,5493065.470000"/>
    <poly id="31279046" type="building" color="red" fill="1" layer="4.00" shape="644884.650000,5493471.010000 644895.330000,5493466.350000 644890.610000,5493456.930000 644880.560000,5493461.620000 644884.650000,5493471.010000"/>
    <poly id="31279069" type="building" color="red" fill="1" layer="4.00" shape="645015.420000,5493504.200000 645025.960000,5493499.910000 645022.860000,5493493.100000 645012.550000,5493497.910000 645015.420000,5493504.200000"/>
    <poly id="31279088" type="building" color="red" fill="1" layer="4.00" shape="645071.670000,5493480.460000 645080.160000,5493476.530000 645078.250000,5493471.270000 645069.150000,5493474.910000 645071.670000,5493480.460000"/>
    <poly id="31279097" type="building" color="red" fill="1" layer="4.00" shape="644999.900000,5493349.500000 645009.570000,5493372.100000 645016.540000,5493370.060000 645006.470000,5493346.520000 644999.900000,5493349.500000"/>
    <poly id="31279117" type="building" color="red" fill="1" layer="4.00" shape="645099.170000,5493392.210000 645113.200000,5493424.780000 645149.650000,5493408.420000 645134.980000,5493376.450000 645099.170000,5493392.210000"/>
    <poly id="31279120" type="building" color="red" fill="1" layer="4.00" shape="645247.260000,5493264.280000 645253.100000,5493278.050000 645354.280000,5493232.470000 645347.860000,5493217.430000 645247.260000,5493264.280000"/>
    <poly id="31279132" type="building" color="red" fill="1" layer="4.00" shape="645167.270000,5493399.600000 645201.210000,5493384.410000 645186.520000,5493353.060000 645152.570000,5493368.870000 645167.270000,5493399.600000"/>
    <poly id="31279133" type="building" color="red" fill="1" layer="4.00" shape="645244.290000,5493166.370000 645270.780000,5493220.330000 645324.890000,5493193.910000 645298.990000,5493140.590000 645244.290000,5493166.370000"/>
    <poly id="31279135" type="building" color="red" fill="1" layer="4.00" shape="645101.230000,5493244.130000 645126.330000,5493296.300000 645145.090000,5493287.310000 645119.990000,5493235.150000 645101.230000,5493244.130000"/>
    <poly id="31279137" type="building" color="red" fill="1" layer="4.00" shape="645157.730000,5493219.370000 645180.850000,5493268.120000 645195.150000,5493261.370000 645184.910000,5493239.780000 645192.040000,5493236.420000 645188.800000,5493229.580000 645181.670000,5493232.940000 645172.030000,5493212.640000 645157.730000,5493219.370000"/>
    <poly id="31279140" type="building" color="red" fill="1" layer="4.00" shape="645061.790000,5493163.980000 645092.860000,5493232.920000 645145.020000,5493209.550000 645112.720000,5493140.570000 645061.790000,5493163.980000"/>
    <poly id="31279144" type="building" color="red" fill="1" layer="4.00" shape="644957.450000,5493211.350000 644999.020000,5493305.950000 645017.240000,5493297.770000 644975.680000,5493203.170000 644957.450000,5493211.350000"/>
    <poly id="31279156" type="building" color="red" fill="1" layer="4.00" shape="645013.290000,5493189.940000 645050.820000,5493272.660000 645083.500000,5493258.050000 645045.970000,5493175.320000 645013.290000,5493189.940000"/>
    <poly id="31279158" type="building" color="red" fill="1" layer="4.00" shape="644940.410000,5493222.040000 644951.560000,5493246.480000 644961.630000,5493241.180000 644950.480000,5493216.740000 644940.410000,5493222.040000"/>
    <poly id="31279163" type="building" color="red" fill="1" layer="4.00" shape="644785.550000,5493208.010000 644806.160000,5493250.040000 644828.810000,5493238.880000 644808.220000,5493196.230000 644785.550000,5493208.010000"/>
    <poly id="31279422" type="building" color="red" fill="1" layer="4.00" shape="645110.830000,5493443.910000 645135.000000,5493492.230000 645257.540000,5493437.300000 645269.320000,5493461.140000 645284.400000,5493454.110000 645272.630000,5493430.270000 645304.090000,5493413.730000 645280.560000,5493365.470000 645267.340000,5493372.550000 645280.850000,5493401.390000 645263.850000,5493410.220000 645227.970000,5493335.590000 645214.110000,5493342.650000 645248.760000,5493417.250000 645231.150000,5493425.450000 645215.880000,5493392.840000 645203.950000,5493398.100000 645219.200000,5493431.320000 645201.610000,5493438.900000 645186.330000,5493406.920000 645173.730000,5493413.390000 645189.040000,5493444.760000 645171.430000,5493452.950000 645155.490000,5493422.190000 645143.540000,5493428.070000 645158.850000,5493459.430000 645140.610000,5493468.230000 645125.300000,5493436.860000 645110.830000,5493443.910000"/>
    <poly id="31279483" type="building" color="red" fill="1" layer="4.00" shape="645267.990000,5493097.520000 645281.400000,5493126.590000 645390.650000,5493075.640000 645376.990000,5493046.540000 645341.560000,5493063.070000 645337.790000,5493064.820000 645282.550000,5493090.600000 645267.990000,5493097.520000"/>
    <poly id="31279495" type="building" color="red" fill="1" layer="4.00" shape="645201.240000,5493127.460000 645210.650000,5493146.900000 645191.180000,5493155.040000 645197.060000,5493167.590000 645252.370000,5493142.440000 645246.480000,5493130.520000 645221.990000,5493141.020000 645213.170000,5493122.200000 645201.240000,5493127.460000"/>
    <poly id="31279497" type="building" color="red" fill="1" layer="4.00" shape="645177.100000,5493124.330000 645182.390000,5493135.620000 645201.240000,5493127.460000 645213.170000,5493122.200000 645244.600000,5493108.180000 645239.300000,5493096.890000 645177.100000,5493124.330000"/>
    <poly id="31279509" type="building" color="red" fill="1" layer="4.00" shape="645349.760000,5493122.760000 645356.190000,5493137.780000 645408.990000,5493113.810000 645402.510000,5493100.630000 645349.760000,5493122.760000"/>
    <poly id="31279526" type="building" color="red" fill="1" layer="4.00" shape="645312.340000,5492909.770000 645349.440000,5492992.260000 645364.270000,5492985.620000 645327.170000,5492903.150000 645312.340000,5492909.770000"/>
    <poly id="31279553" type="building" color="red" fill="1" layer="4.00" shape="645262.690000,5492779.240000 645266.420000,5492825.790000 645361.620000,5492818.420000 645357.280000,5492771.870000 645262.690000,5492779.240000"/>
    <poly id="31279576" type="building" color="red" fill="1" layer="4.00" shape="644884.860000,5493080.950000 644898.020000,5493110.160000 644964.400000,5493080.450000 644966.630000,5493085.400000 644954.280000,5493090.930000 644958.660000,5493100.670000 644986.340000,5493088.280000 644982.050000,5493078.760000 644972.920000,5493082.840000 644970.590000,5493077.670000 644979.640000,5493073.630000 644966.480000,5493044.400000 644933.280000,5493059.260000 644909.280000,5493069.990000 644884.860000,5493080.950000"/>
    <poly id="31279766" type="building" color="red" fill="1" layer="4.00" shape="644913.220000,5493147.020000 644926.750000,5493175.240000 644979.550000,5493151.260000 644966.630000,5493123.670000 644913.220000,5493147.020000"/>
    <poly id="31279770" type="building" color="red" fill="1" layer="4.00" shape="644978.540000,5492988.010000 644996.470000,5493026.210000 644997.550000,5493025.710000 645001.130000,5493033.320000 644999.960000,5493033.870000 645016.480000,5493069.080000 645031.500000,5493062.070000 644993.480000,5492981.050000 644978.540000,5492988.010000"/>